Version 4
SHEET 1 880 680
WIRE 336 -16 304 -16
WIRE 432 -16 416 -16
WIRE 304 64 304 -16
WIRE 336 64 304 64
WIRE 432 64 432 -16
WIRE 432 64 400 64
WIRE -208 128 -208 64
WIRE -32 128 -32 48
WIRE 368 192 368 160
WIRE 240 208 128 208
WIRE 304 208 304 64
WIRE 336 208 304 208
WIRE 432 224 432 64
WIRE 432 224 400 224
WIRE 336 240 320 240
WIRE 320 256 320 240
WIRE -208 288 -208 208
WIRE -32 288 -32 208
WIRE 368 304 368 256
FLAG 368 304 -V
IOPIN 368 304 Out
FLAG 368 160 +V
IOPIN 368 160 Out
FLAG 432 64 Vca
FLAG 320 256 0
FLAG -32 288 0
FLAG -208 288 0
FLAG -208 64 +V
IOPIN -208 64 Out
FLAG -32 48 -V
IOPIN -32 48 Out
FLAG -320 512 0
FLAG -64 512 0
FLAG -320 432 Vc
FLAG -64 432 Vm
FLAG 128 288 0
SYMBOL cap 400 48 R90
WINDOW 0 0 32 VBottom 2
WINDOW 3 32 32 VTop 2
SYMATTR InstName C2
SYMATTR Value 1n
SYMBOL res 432 -32 R90
WINDOW 0 0 56 VBottom 2
WINDOW 3 32 56 VTop 2
SYMATTR InstName R2
SYMATTR Value 10Meg
SYMBOL AutoGenerated\\TL082 368 224 R0
SYMATTR InstName U1
SYMBOL voltage -32 112 R0
WINDOW 123 0 0 Left 2
WINDOW 39 0 0 Left 2
SYMATTR InstName V1
SYMATTR Value -9
SYMBOL voltage -208 112 R0
WINDOW 123 0 0 Left 2
WINDOW 39 0 0 Left 2
SYMATTR InstName V2
SYMATTR Value +9
SYMBOL voltage -320 416 R0
WINDOW 123 -36 156 Left 2
WINDOW 39 0 0 Left 0
SYMATTR Value2 AC 1
SYMATTR InstName V3
SYMATTR Value SINE(0 0.2 50)
SYMBOL voltage -64 416 R0
WINDOW 123 0 0 Left 0
WINDOW 39 0 0 Left 0
SYMATTR InstName V4
SYMATTR Value PULSE(1 3 0.2 0 0 0.03 0.5 2)
SYMBOL bv 128 192 R0
WINDOW 3 -72 141 Left 2
SYMATTR Value V=V(Vc)*V(Vm)
SYMATTR InstName B1
SYMBOL cap 304 192 R90
WINDOW 0 0 32 VBottom 2
WINDOW 3 32 32 VTop 2
SYMATTR InstName C1
SYMATTR Value 11n
TEXT -352 536 Left 2 !.tran 0 1 0 10u
